dss/import/capas-pablo/Formato-interfaz/13n-switch-modificado/Line-V.dss
New Line.LC684_652A phases=1 bus1=684.1 bus2=652.1 length=1.0 units=km r1=0.222002 x1=0.07947 r0=0.0 x0=0.0 C1=0.033705 C0=0.0 B1=12.70673 B0=0.0 normamps=165 
New Line.LC692_675 phases=3 bus1=692.1.2.3 bus2=675.1.2.3 length=1.0 units=km r1=0.033997 x1=0.042027 r0=0.061029 x0=0.331502 C1=0.025995 C0=0.025995 B1=9.80006 B0=9.80006 normamps=260 
New Line.LOHL632_633 phases=3 bus1=632.1.2.3.4 bus2=633.1.2.3.4 geometry=LineConfig602 length=0.1524 units=km normamps=340 
New Line.LOHL632_645 phases=2 bus1=632.3.2.4 bus2=645.3.2.4 geometry=LineConfig603_604 length=0.1524 units=km normamps=230 
New Line.LOHL632_671 phases=3 bus1=632.1.2.3.4 bus2=671.1.2.3.4 geometry=LineConfig601 length=0.6096 units=km normamps=730 
New Line.LOHL645_646 phases=2 bus1=645.3.2.4 bus2=646.3.2.4 geometry=LineConfig603_604 length=0.09144 units=km normamps=230 
New Line.LOHL650_632 phases=3 bus1=RG60.1.2.3.4 bus2=632.1.2.3.4 geometry=LineConfig601 length=0.609599 units=km normamps=730 
New Line.LOHL671_680 phases=3 bus1=671.1.2.3.4 bus2=680.1.2.3.4 geometry=LineConfig601 length=0.3048 units=km normamps=730 
New Line.LOHL671_684 phases=2 bus1=671.1.3.4 bus2=684.1.3.4 geometry=LineConfig603_604 length=0.09144 units=km normamps=230 
New Line.LOHL684_611 phases=1 bus1=684.3.4 bus2=611.3.4 geometry=LineConfig605 length=0.09144 units=km normamps=230 
New Line.InterruptorPrincipal phases=3 bus1=650.1.2.3 bus2=RG60.1.2.3 length=0.001 r1=0.0001 x1=0 r0=0.0001 x0=0 C1=0 C0=0 Switch=y 
New Line.Switch phases=3 bus1=671.1.2.3.4 bus2=692.1.2.3.4 length=0.001 r1=0.0001 x1=0 r0=0.0001 x0=0 C1=0 C0=0 Switch=y 